<?xml version="1.0" encoding="UTF-8"?>

<!-- generated on 2026-04-08T23:30:59.746597+01:00 by Eclipse SUMO netconvert 1.25.0
<netconvertConfiguration xmlns:xsi="http://www.w3.org/2001/XMLSchema-instance" xsi:noNamespaceSchemaLocation="http://sumo.dlr.de/xsd/netconvertConfiguration.xsd">

    <input>
        <node-files value="network/nodes.nod.xml"/>
        <edge-files value="network/edges.edg.xml"/>
    </input>

    <output>
        <output-file value="network/network.net.xml"/>
    </output>

</netconvertConfiguration>
-->

<net version="1.20" junctionCornerDetail="5" limitTurnSpeed="5.50" xmlns:xsi="http://www.w3.org/2001/XMLSchema-instance" xsi:noNamespaceSchemaLocation="http://sumo.dlr.de/xsd/net_file.xsd">

    <location netOffset="260.00,260.00" convBoundary="0.00,0.00,520.00,520.00" origBoundary="-260.00,-260.00,260.00,260.00" projParameter="!"/>

    <edge id=":e1_0" function="internal">
        <lane id=":e1_0_0" index="0" allow="passenger bus" speed="3.65" length="4.67" shape="520.00,378.40 521.20,379.20 521.60,380.00 521.20,380.80 520.00,381.60"/>
    </edge>
    <edge id=":e2_0" function="internal">
        <lane id=":e2_0_0" index="0" allow="passenger bus" speed="3.65" length="4.67" shape="520.00,258.40 521.20,259.20 521.60,260.00 521.20,260.80 520.00,261.60"/>
    </edge>
    <edge id=":e3_0" function="internal">
        <lane id=":e3_0_0" index="0" allow="passenger bus" speed="3.65" length="4.67" shape="520.00,138.40 521.20,139.20 521.60,140.00 521.20,140.80 520.00,141.60"/>
    </edge>
    <edge id=":i11_0" function="internal">
        <lane id=":i11_0_0" index="0" allow="passenger bus" speed="6.51" length="9.03" shape="138.40,387.20 138.05,384.75 137.00,383.00 135.25,381.95 132.80,381.60"/>
    </edge>
    <edge id=":i11_1" function="internal">
        <lane id=":i11_1_0" index="0" allow="passenger bus" speed="12.50" length="14.40" shape="138.40,387.20 138.40,372.80"/>
    </edge>
    <edge id=":i11_2" function="internal">
        <lane id=":i11_2_0" index="0" allow="passenger bus" speed="8.00" length="14.19" shape="138.40,387.20 138.95,383.35 140.60,380.60 143.35,378.95 147.20,378.40"/>
    </edge>
    <edge id=":i11_3" function="internal">
        <lane id=":i11_3_0" index="0" allow="passenger bus" speed="3.65" length="4.67" shape="138.40,387.20 139.20,386.00 140.00,385.60 140.80,386.00 141.60,387.20"/>
    </edge>
    <edge id=":i11_4" function="internal">
        <lane id=":i11_4_0" index="0" allow="passenger bus" speed="6.51" length="9.03" shape="147.20,381.60 144.75,381.95 143.00,383.00 141.95,384.75 141.60,387.20"/>
    </edge>
    <edge id=":i11_5" function="internal">
        <lane id=":i11_5_0" index="0" allow="passenger bus" speed="13.89" length="14.40" shape="147.20,381.60 132.80,381.60"/>
    </edge>
    <edge id=":i11_6" function="internal">
        <lane id=":i11_6_0" index="0" allow="passenger bus" speed="8.00" length="4.07" shape="147.20,381.60 143.35,381.05 143.20,380.96"/>
    </edge>
    <edge id=":i11_7" function="internal">
        <lane id=":i11_7_0" index="0" allow="passenger bus" speed="3.65" length="1.44" shape="147.20,381.60 146.00,380.80"/>
    </edge>
    <edge id=":i11_16" function="internal">
        <lane id=":i11_16_0" index="0" allow="passenger bus" speed="8.00" length="10.13" shape="143.20,380.96 140.60,379.40 138.95,376.65 138.40,372.80"/>
    </edge>
    <edge id=":i11_17" function="internal">
        <lane id=":i11_17_0" index="0" allow="passenger bus" speed="3.65" length="3.23" shape="146.00,380.80 145.60,380.00 146.00,379.20 147.20,378.40"/>
    </edge>
    <edge id=":i11_8" function="internal">
        <lane id=":i11_8_0" index="0" allow="passenger bus" speed="6.51" length="9.03" shape="141.60,372.80 141.95,375.25 143.00,377.00 144.75,378.05 147.20,378.40"/>
    </edge>
    <edge id=":i11_9" function="internal">
        <lane id=":i11_9_0" index="0" allow="passenger bus" speed="12.50" length="14.40" shape="141.60,372.80 141.60,387.20"/>
    </edge>
    <edge id=":i11_10" function="internal">
        <lane id=":i11_10_0" index="0" allow="passenger bus" speed="8.00" length="14.19" shape="141.60,372.80 141.05,376.65 139.40,379.40 136.65,381.05 132.80,381.60"/>
    </edge>
    <edge id=":i11_11" function="internal">
        <lane id=":i11_11_0" index="0" allow="passenger bus" speed="3.65" length="4.67" shape="141.60,372.80 140.80,374.00 140.00,374.40 139.20,374.00 138.40,372.80"/>
    </edge>
    <edge id=":i11_12" function="internal">
        <lane id=":i11_12_0" index="0" allow="passenger bus" speed="6.51" length="9.03" shape="132.80,378.40 135.25,378.05 137.00,377.00 138.05,375.25 138.40,372.80"/>
    </edge>
    <edge id=":i11_13" function="internal">
        <lane id=":i11_13_0" index="0" allow="passenger bus" speed="13.89" length="14.40" shape="132.80,378.40 147.20,378.40"/>
    </edge>
    <edge id=":i11_14" function="internal">
        <lane id=":i11_14_0" index="0" allow="passenger bus" speed="8.00" length="4.07" shape="132.80,378.40 136.65,378.95 136.80,379.04"/>
    </edge>
    <edge id=":i11_15" function="internal">
        <lane id=":i11_15_0" index="0" allow="passenger bus" speed="3.65" length="1.44" shape="132.80,378.40 134.00,379.20"/>
    </edge>
    <edge id=":i11_18" function="internal">
        <lane id=":i11_18_0" index="0" allow="passenger bus" speed="8.00" length="10.13" shape="136.80,379.04 139.40,380.60 141.05,383.35 141.60,387.20"/>
    </edge>
    <edge id=":i11_19" function="internal">
        <lane id=":i11_19_0" index="0" allow="passenger bus" speed="3.65" length="3.23" shape="134.00,379.20 134.40,380.00 134.00,380.80 132.80,381.60"/>
    </edge>
    <edge id=":i12_0" function="internal">
        <lane id=":i12_0_0" index="0" allow="passenger bus" speed="6.51" length="9.03" shape="258.40,387.20 258.05,384.75 257.00,383.00 255.25,381.95 252.80,381.60"/>
    </edge>
    <edge id=":i12_1" function="internal">
        <lane id=":i12_1_0" index="0" allow="passenger bus" speed="12.50" length="14.40" shape="258.40,387.20 258.40,372.80"/>
    </edge>
    <edge id=":i12_2" function="internal">
        <lane id=":i12_2_0" index="0" allow="passenger bus" speed="8.00" length="14.19" shape="258.40,387.20 258.95,383.35 260.60,380.60 263.35,378.95 267.20,378.40"/>
    </edge>
    <edge id=":i12_3" function="internal">
        <lane id=":i12_3_0" index="0" allow="passenger bus" speed="3.65" length="4.67" shape="258.40,387.20 259.20,386.00 260.00,385.60 260.80,386.00 261.60,387.20"/>
    </edge>
    <edge id=":i12_4" function="internal">
        <lane id=":i12_4_0" index="0" allow="passenger bus" speed="6.51" length="9.03" shape="267.20,381.60 264.75,381.95 263.00,383.00 261.95,384.75 261.60,387.20"/>
    </edge>
    <edge id=":i12_5" function="internal">
        <lane id=":i12_5_0" index="0" allow="passenger bus" speed="13.89" length="14.40" shape="267.20,381.60 252.80,381.60"/>
    </edge>
    <edge id=":i12_6" function="internal">
        <lane id=":i12_6_0" index="0" allow="passenger bus" speed="8.00" length="4.07" shape="267.20,381.60 263.35,381.05 263.20,380.96"/>
    </edge>
    <edge id=":i12_7" function="internal">
        <lane id=":i12_7_0" index="0" allow="passenger bus" speed="3.65" length="1.44" shape="267.20,381.60 266.00,380.80"/>
    </edge>
    <edge id=":i12_16" function="internal">
        <lane id=":i12_16_0" index="0" allow="passenger bus" speed="8.00" length="10.13" shape="263.20,380.96 260.60,379.40 258.95,376.65 258.40,372.80"/>
    </edge>
    <edge id=":i12_17" function="internal">
        <lane id=":i12_17_0" index="0" allow="passenger bus" speed="3.65" length="3.23" shape="266.00,380.80 265.60,380.00 266.00,379.20 267.20,378.40"/>
    </edge>
    <edge id=":i12_8" function="internal">
        <lane id=":i12_8_0" index="0" allow="passenger bus" speed="6.51" length="9.03" shape="261.60,372.80 261.95,375.25 263.00,377.00 264.75,378.05 267.20,378.40"/>
    </edge>
    <edge id=":i12_9" function="internal">
        <lane id=":i12_9_0" index="0" allow="passenger bus" speed="12.50" length="14.40" shape="261.60,372.80 261.60,387.20"/>
    </edge>
    <edge id=":i12_10" function="internal">
        <lane id=":i12_10_0" index="0" allow="passenger bus" speed="8.00" length="14.19" shape="261.60,372.80 261.05,376.65 259.40,379.40 256.65,381.05 252.80,381.60"/>
    </edge>
    <edge id=":i12_11" function="internal">
        <lane id=":i12_11_0" index="0" allow="passenger bus" speed="3.65" length="4.67" shape="261.60,372.80 260.80,374.00 260.00,374.40 259.20,374.00 258.40,372.80"/>
    </edge>
    <edge id=":i12_12" function="internal">
        <lane id=":i12_12_0" index="0" allow="passenger bus" speed="6.51" length="9.03" shape="252.80,378.40 255.25,378.05 257.00,377.00 258.05,375.25 258.40,372.80"/>
    </edge>
    <edge id=":i12_13" function="internal">
        <lane id=":i12_13_0" index="0" allow="passenger bus" speed="13.89" length="14.40" shape="252.80,378.40 267.20,378.40"/>
    </edge>
    <edge id=":i12_14" function="internal">
        <lane id=":i12_14_0" index="0" allow="passenger bus" speed="8.00" length="4.07" shape="252.80,378.40 256.65,378.95 256.80,379.04"/>
    </edge>
    <edge id=":i12_15" function="internal">
        <lane id=":i12_15_0" index="0" allow="passenger bus" speed="3.65" length="1.44" shape="252.80,378.40 254.00,379.20"/>
    </edge>
    <edge id=":i12_18" function="internal">
        <lane id=":i12_18_0" index="0" allow="passenger bus" speed="8.00" length="10.13" shape="256.80,379.04 259.40,380.60 261.05,383.35 261.60,387.20"/>
    </edge>
    <edge id=":i12_19" function="internal">
        <lane id=":i12_19_0" index="0" allow="passenger bus" speed="3.65" length="3.23" shape="254.00,379.20 254.40,380.00 254.00,380.80 252.80,381.60"/>
    </edge>
    <edge id=":i13_0" function="internal">
        <lane id=":i13_0_0" index="0" allow="passenger bus" speed="6.51" length="9.03" shape="378.40,387.20 378.05,384.75 377.00,383.00 375.25,381.95 372.80,381.60"/>
    </edge>
    <edge id=":i13_1" function="internal">
        <lane id=":i13_1_0" index="0" allow="passenger bus" speed="12.50" length="14.40" shape="378.40,387.20 378.40,372.80"/>
    </edge>
    <edge id=":i13_2" function="internal">
        <lane id=":i13_2_0" index="0" allow="passenger bus" speed="8.00" length="14.19" shape="378.40,387.20 378.95,383.35 380.60,380.60 383.35,378.95 387.20,378.40"/>
    </edge>
    <edge id=":i13_3" function="internal">
        <lane id=":i13_3_0" index="0" allow="passenger bus" speed="3.65" length="4.67" shape="378.40,387.20 379.20,386.00 380.00,385.60 380.80,386.00 381.60,387.20"/>
    </edge>
    <edge id=":i13_4" function="internal">
        <lane id=":i13_4_0" index="0" allow="passenger bus" speed="6.51" length="9.03" shape="387.20,381.60 384.75,381.95 383.00,383.00 381.95,384.75 381.60,387.20"/>
    </edge>
    <edge id=":i13_5" function="internal">
        <lane id=":i13_5_0" index="0" allow="passenger bus" speed="13.89" length="14.40" shape="387.20,381.60 372.80,381.60"/>
    </edge>
    <edge id=":i13_6" function="internal">
        <lane id=":i13_6_0" index="0" allow="passenger bus" speed="8.00" length="4.07" shape="387.20,381.60 383.35,381.05 383.20,380.96"/>
    </edge>
    <edge id=":i13_7" function="internal">
        <lane id=":i13_7_0" index="0" allow="passenger bus" speed="3.65" length="1.44" shape="387.20,381.60 386.00,380.80"/>
    </edge>
    <edge id=":i13_16" function="internal">
        <lane id=":i13_16_0" index="0" allow="passenger bus" speed="8.00" length="10.13" shape="383.20,380.96 380.60,379.40 378.95,376.65 378.40,372.80"/>
    </edge>
    <edge id=":i13_17" function="internal">
        <lane id=":i13_17_0" index="0" allow="passenger bus" speed="3.65" length="3.23" shape="386.00,380.80 385.60,380.00 386.00,379.20 387.20,378.40"/>
    </edge>
    <edge id=":i13_8" function="internal">
        <lane id=":i13_8_0" index="0" allow="passenger bus" speed="6.51" length="9.03" shape="381.60,372.80 381.95,375.25 383.00,377.00 384.75,378.05 387.20,378.40"/>
    </edge>
    <edge id=":i13_9" function="internal">
        <lane id=":i13_9_0" index="0" allow="passenger bus" speed="12.50" length="14.40" shape="381.60,372.80 381.60,387.20"/>
    </edge>
    <edge id=":i13_10" function="internal">
        <lane id=":i13_10_0" index="0" allow="passenger bus" speed="8.00" length="14.19" shape="381.60,372.80 381.05,376.65 379.40,379.40 376.65,381.05 372.80,381.60"/>
    </edge>
    <edge id=":i13_11" function="internal">
        <lane id=":i13_11_0" index="0" allow="passenger bus" speed="3.65" length="4.67" shape="381.60,372.80 380.80,374.00 380.00,374.40 379.20,374.00 378.40,372.80"/>
    </edge>
    <edge id=":i13_12" function="internal">
        <lane id=":i13_12_0" index="0" allow="passenger bus" speed="6.51" length="9.03" shape="372.80,378.40 375.25,378.05 377.00,377.00 378.05,375.25 378.40,372.80"/>
    </edge>
    <edge id=":i13_13" function="internal">
        <lane id=":i13_13_0" index="0" allow="passenger bus" speed="13.89" length="14.40" shape="372.80,378.40 387.20,378.40"/>
    </edge>
    <edge id=":i13_14" function="internal">
        <lane id=":i13_14_0" index="0" allow="passenger bus" speed="8.00" length="4.07" shape="372.80,378.40 376.65,378.95 376.80,379.04"/>
    </edge>
    <edge id=":i13_15" function="internal">
        <lane id=":i13_15_0" index="0" allow="passenger bus" speed="3.65" length="1.44" shape="372.80,378.40 374.00,379.20"/>
    </edge>
    <edge id=":i13_18" function="internal">
        <lane id=":i13_18_0" index="0" allow="passenger bus" speed="8.00" length="10.13" shape="376.80,379.04 379.40,380.60 381.05,383.35 381.60,387.20"/>
    </edge>
    <edge id=":i13_19" function="internal">
        <lane id=":i13_19_0" index="0" allow="passenger bus" speed="3.65" length="3.23" shape="374.00,379.20 374.40,380.00 374.00,380.80 372.80,381.60"/>
    </edge>
    <edge id=":i21_0" function="internal">
        <lane id=":i21_0_0" index="0" allow="passenger bus" speed="6.51" length="9.03" shape="138.40,267.20 138.05,264.75 137.00,263.00 135.25,261.95 132.80,261.60"/>
    </edge>
    <edge id=":i21_1" function="internal">
        <lane id=":i21_1_0" index="0" allow="passenger bus" speed="12.50" length="14.40" shape="138.40,267.20 138.40,252.80"/>
    </edge>
    <edge id=":i21_2" function="internal">
        <lane id=":i21_2_0" index="0" allow="passenger bus" speed="8.00" length="14.19" shape="138.40,267.20 138.95,263.35 140.60,260.60 143.35,258.95 147.20,258.40"/>
    </edge>
    <edge id=":i21_3" function="internal">
        <lane id=":i21_3_0" index="0" allow="passenger bus" speed="3.65" length="4.67" shape="138.40,267.20 139.20,266.00 140.00,265.60 140.80,266.00 141.60,267.20"/>
    </edge>
    <edge id=":i21_4" function="internal">
        <lane id=":i21_4_0" index="0" allow="passenger bus" speed="6.51" length="9.03" shape="147.20,261.60 144.75,261.95 143.00,263.00 141.95,264.75 141.60,267.20"/>
    </edge>
    <edge id=":i21_5" function="internal">
        <lane id=":i21_5_0" index="0" allow="passenger bus" speed="13.00" length="14.40" shape="147.20,261.60 132.80,261.60"/>
    </edge>
    <edge id=":i21_6" function="internal">
        <lane id=":i21_6_0" index="0" allow="passenger bus" speed="8.00" length="4.07" shape="147.20,261.60 143.35,261.05 143.20,260.96"/>
    </edge>
    <edge id=":i21_7" function="internal">
        <lane id=":i21_7_0" index="0" allow="passenger bus" speed="3.65" length="1.44" shape="147.20,261.60 146.00,260.80"/>
    </edge>
    <edge id=":i21_16" function="internal">
        <lane id=":i21_16_0" index="0" allow="passenger bus" speed="8.00" length="10.13" shape="143.20,260.96 140.60,259.40 138.95,256.65 138.40,252.80"/>
    </edge>
    <edge id=":i21_17" function="internal">
        <lane id=":i21_17_0" index="0" allow="passenger bus" speed="3.65" length="3.23" shape="146.00,260.80 145.60,260.00 146.00,259.20 147.20,258.40"/>
    </edge>
    <edge id=":i21_8" function="internal">
        <lane id=":i21_8_0" index="0" allow="passenger bus" speed="6.51" length="9.03" shape="141.60,252.80 141.95,255.25 143.00,257.00 144.75,258.05 147.20,258.40"/>
    </edge>
    <edge id=":i21_9" function="internal">
        <lane id=":i21_9_0" index="0" allow="passenger bus" speed="12.50" length="14.40" shape="141.60,252.80 141.60,267.20"/>
    </edge>
    <edge id=":i21_10" function="internal">
        <lane id=":i21_10_0" index="0" allow="passenger bus" speed="8.00" length="14.19" shape="141.60,252.80 141.05,256.65 139.40,259.40 136.65,261.05 132.80,261.60"/>
    </edge>
    <edge id=":i21_11" function="internal">
        <lane id=":i21_11_0" index="0" allow="passenger bus" speed="3.65" length="4.67" shape="141.60,252.80 140.80,254.00 140.00,254.40 139.20,254.00 138.40,252.80"/>
    </edge>
    <edge id=":i21_12" function="internal">
        <lane id=":i21_12_0" index="0" allow="passenger bus" speed="6.51" length="9.03" shape="132.80,258.40 135.25,258.05 137.00,257.00 138.05,255.25 138.40,252.80"/>
    </edge>
    <edge id=":i21_13" function="internal">
        <lane id=":i21_13_0" index="0" allow="passenger bus" speed="13.00" length="14.40" shape="132.80,258.40 147.20,258.40"/>
    </edge>
    <edge id=":i21_14" function="internal">
        <lane id=":i21_14_0" index="0" allow="passenger bus" speed="8.00" length="4.07" shape="132.80,258.40 136.65,258.95 136.80,259.04"/>
    </edge>
    <edge id=":i21_15" function="internal">
        <lane id=":i21_15_0" index="0" allow="passenger bus" speed="3.65" length="1.44" shape="132.80,258.40 134.00,259.20"/>
    </edge>
    <edge id=":i21_18" function="internal">
        <lane id=":i21_18_0" index="0" allow="passenger bus" speed="8.00" length="10.13" shape="136.80,259.04 139.40,260.60 141.05,263.35 141.60,267.20"/>
    </edge>
    <edge id=":i21_19" function="internal">
        <lane id=":i21_19_0" index="0" allow="passenger bus" speed="3.65" length="3.23" shape="134.00,259.20 134.40,260.00 134.00,260.80 132.80,261.60"/>
    </edge>
    <edge id=":i22_0" function="internal">
        <lane id=":i22_0_0" index="0" allow="passenger bus" speed="6.51" length="9.03" shape="258.40,267.20 258.05,264.75 257.00,263.00 255.25,261.95 252.80,261.60"/>
    </edge>
    <edge id=":i22_1" function="internal">
        <lane id=":i22_1_0" index="0" allow="passenger bus" speed="12.50" length="14.40" shape="258.40,267.20 258.40,252.80"/>
    </edge>
    <edge id=":i22_2" function="internal">
        <lane id=":i22_2_0" index="0" allow="passenger bus" speed="8.00" length="14.19" shape="258.40,267.20 258.95,263.35 260.60,260.60 263.35,258.95 267.20,258.40"/>
    </edge>
    <edge id=":i22_3" function="internal">
        <lane id=":i22_3_0" index="0" allow="passenger bus" speed="3.65" length="4.67" shape="258.40,267.20 259.20,266.00 260.00,265.60 260.80,266.00 261.60,267.20"/>
    </edge>
    <edge id=":i22_4" function="internal">
        <lane id=":i22_4_0" index="0" allow="passenger bus" speed="6.51" length="9.03" shape="267.20,261.60 264.75,261.95 263.00,263.00 261.95,264.75 261.60,267.20"/>
    </edge>
    <edge id=":i22_5" function="internal">
        <lane id=":i22_5_0" index="0" allow="passenger bus" speed="13.00" length="14.40" shape="267.20,261.60 252.80,261.60"/>
    </edge>
    <edge id=":i22_6" function="internal">
        <lane id=":i22_6_0" index="0" allow="passenger bus" speed="8.00" length="4.07" shape="267.20,261.60 263.35,261.05 263.20,260.96"/>
    </edge>
    <edge id=":i22_7" function="internal">
        <lane id=":i22_7_0" index="0" allow="passenger bus" speed="3.65" length="1.44" shape="267.20,261.60 266.00,260.80"/>
    </edge>
    <edge id=":i22_16" function="internal">
        <lane id=":i22_16_0" index="0" allow="passenger bus" speed="8.00" length="10.13" shape="263.20,260.96 260.60,259.40 258.95,256.65 258.40,252.80"/>
    </edge>
    <edge id=":i22_17" function="internal">
        <lane id=":i22_17_0" index="0" allow="passenger bus" speed="3.65" length="3.23" shape="266.00,260.80 265.60,260.00 266.00,259.20 267.20,258.40"/>
    </edge>
    <edge id=":i22_8" function="internal">
        <lane id=":i22_8_0" index="0" allow="passenger bus" speed="6.51" length="9.03" shape="261.60,252.80 261.95,255.25 263.00,257.00 264.75,258.05 267.20,258.40"/>
    </edge>
    <edge id=":i22_9" function="internal">
        <lane id=":i22_9_0" index="0" allow="passenger bus" speed="12.50" length="14.40" shape="261.60,252.80 261.60,267.20"/>
    </edge>
    <edge id=":i22_10" function="internal">
        <lane id=":i22_10_0" index="0" allow="passenger bus" speed="8.00" length="14.19" shape="261.60,252.80 261.05,256.65 259.40,259.40 256.65,261.05 252.80,261.60"/>
    </edge>
    <edge id=":i22_11" function="internal">
        <lane id=":i22_11_0" index="0" allow="passenger bus" speed="3.65" length="4.67" shape="261.60,252.80 260.80,254.00 260.00,254.40 259.20,254.00 258.40,252.80"/>
    </edge>
    <edge id=":i22_12" function="internal">
        <lane id=":i22_12_0" index="0" allow="passenger bus" speed="6.51" length="9.03" shape="252.80,258.40 255.25,258.05 257.00,257.00 258.05,255.25 258.40,252.80"/>
    </edge>
    <edge id=":i22_13" function="internal">
        <lane id=":i22_13_0" index="0" allow="passenger bus" speed="13.00" length="14.40" shape="252.80,258.40 267.20,258.40"/>
    </edge>
    <edge id=":i22_14" function="internal">
        <lane id=":i22_14_0" index="0" allow="passenger bus" speed="8.00" length="4.07" shape="252.80,258.40 256.65,258.95 256.80,259.04"/>
    </edge>
    <edge id=":i22_15" function="internal">
        <lane id=":i22_15_0" index="0" allow="passenger bus" speed="3.65" length="1.44" shape="252.80,258.40 254.00,259.20"/>
    </edge>
    <edge id=":i22_18" function="internal">
        <lane id=":i22_18_0" index="0" allow="passenger bus" speed="8.00" length="10.13" shape="256.80,259.04 259.40,260.60 261.05,263.35 261.60,267.20"/>
    </edge>
    <edge id=":i22_19" function="internal">
        <lane id=":i22_19_0" index="0" allow="passenger bus" speed="3.65" length="3.23" shape="254.00,259.20 254.40,260.00 254.00,260.80 252.80,261.60"/>
    </edge>
    <edge id=":i23_0" function="internal">
        <lane id=":i23_0_0" index="0" allow="passenger bus" speed="6.51" length="9.03" shape="378.40,267.20 378.05,264.75 377.00,263.00 375.25,261.95 372.80,261.60"/>
    </edge>
    <edge id=":i23_1" function="internal">
        <lane id=":i23_1_0" index="0" allow="passenger bus" speed="12.50" length="14.40" shape="378.40,267.20 378.40,252.80"/>
    </edge>
    <edge id=":i23_2" function="internal">
        <lane id=":i23_2_0" index="0" allow="passenger bus" speed="8.00" length="14.19" shape="378.40,267.20 378.95,263.35 380.60,260.60 383.35,258.95 387.20,258.40"/>
    </edge>
    <edge id=":i23_3" function="internal">
        <lane id=":i23_3_0" index="0" allow="passenger bus" speed="3.65" length="4.67" shape="378.40,267.20 379.20,266.00 380.00,265.60 380.80,266.00 381.60,267.20"/>
    </edge>
    <edge id=":i23_4" function="internal">
        <lane id=":i23_4_0" index="0" allow="passenger bus" speed="6.51" length="9.03" shape="387.20,261.60 384.75,261.95 383.00,263.00 381.95,264.75 381.60,267.20"/>
    </edge>
    <edge id=":i23_5" function="internal">
        <lane id=":i23_5_0" index="0" allow="passenger bus" speed="13.00" length="14.40" shape="387.20,261.60 372.80,261.60"/>
    </edge>
    <edge id=":i23_6" function="internal">
        <lane id=":i23_6_0" index="0" allow="passenger bus" speed="8.00" length="4.07" shape="387.20,261.60 383.35,261.05 383.20,260.96"/>
    </edge>
    <edge id=":i23_7" function="internal">
        <lane id=":i23_7_0" index="0" allow="passenger bus" speed="3.65" length="1.44" shape="387.20,261.60 386.00,260.80"/>
    </edge>
    <edge id=":i23_16" function="internal">
        <lane id=":i23_16_0" index="0" allow="passenger bus" speed="8.00" length="10.13" shape="383.20,260.96 380.60,259.40 378.95,256.65 378.40,252.80"/>
    </edge>
    <edge id=":i23_17" function="internal">
        <lane id=":i23_17_0" index="0" allow="passenger bus" speed="3.65" length="3.23" shape="386.00,260.80 385.60,260.00 386.00,259.20 387.20,258.40"/>
    </edge>
    <edge id=":i23_8" function="internal">
        <lane id=":i23_8_0" index="0" allow="passenger bus" speed="6.51" length="9.03" shape="381.60,252.80 381.95,255.25 383.00,257.00 384.75,258.05 387.20,258.40"/>
    </edge>
    <edge id=":i23_9" function="internal">
        <lane id=":i23_9_0" index="0" allow="passenger bus" speed="12.50" length="14.40" shape="381.60,252.80 381.60,267.20"/>
    </edge>
    <edge id=":i23_10" function="internal">
        <lane id=":i23_10_0" index="0" allow="passenger bus" speed="8.00" length="14.19" shape="381.60,252.80 381.05,256.65 379.40,259.40 376.65,261.05 372.80,261.60"/>
    </edge>
    <edge id=":i23_11" function="internal">
        <lane id=":i23_11_0" index="0" allow="passenger bus" speed="3.65" length="4.67" shape="381.60,252.80 380.80,254.00 380.00,254.40 379.20,254.00 378.40,252.80"/>
    </edge>
    <edge id=":i23_12" function="internal">
        <lane id=":i23_12_0" index="0" allow="passenger bus" speed="6.51" length="9.03" shape="372.80,258.40 375.25,258.05 377.00,257.00 378.05,255.25 378.40,252.80"/>
    </edge>
    <edge id=":i23_13" function="internal">
        <lane id=":i23_13_0" index="0" allow="passenger bus" speed="13.00" length="14.40" shape="372.80,258.40 387.20,258.40"/>
    </edge>
    <edge id=":i23_14" function="internal">
        <lane id=":i23_14_0" index="0" allow="passenger bus" speed="8.00" length="4.07" shape="372.80,258.40 376.65,258.95 376.80,259.04"/>
    </edge>
    <edge id=":i23_15" function="internal">
        <lane id=":i23_15_0" index="0" allow="passenger bus" speed="3.65" length="1.44" shape="372.80,258.40 374.00,259.20"/>
    </edge>
    <edge id=":i23_18" function="internal">
        <lane id=":i23_18_0" index="0" allow="passenger bus" speed="8.00" length="10.13" shape="376.80,259.04 379.40,260.60 381.05,263.35 381.60,267.20"/>
    </edge>
    <edge id=":i23_19" function="internal">
        <lane id=":i23_19_0" index="0" allow="passenger bus" speed="3.65" length="3.23" shape="374.00,259.20 374.40,260.00 374.00,260.80 372.80,261.60"/>
    </edge>
    <edge id=":i31_0" function="internal">
        <lane id=":i31_0_0" index="0" allow="passenger bus" speed="6.51" length="9.03" shape="138.40,147.20 138.05,144.75 137.00,143.00 135.25,141.95 132.80,141.60"/>
    </edge>
    <edge id=":i31_1" function="internal">
        <lane id=":i31_1_0" index="0" allow="passenger bus" speed="12.50" length="14.40" shape="138.40,147.20 138.40,132.80"/>
    </edge>
    <edge id=":i31_2" function="internal">
        <lane id=":i31_2_0" index="0" allow="passenger bus" speed="8.00" length="4.07" shape="138.40,147.20 138.95,143.35 139.04,143.20"/>
    </edge>
    <edge id=":i31_3" function="internal">
        <lane id=":i31_3_0" index="0" allow="passenger bus" speed="3.65" length="1.44" shape="138.40,147.20 139.20,146.00"/>
    </edge>
    <edge id=":i31_16" function="internal">
        <lane id=":i31_16_0" index="0" allow="passenger bus" speed="8.00" length="10.13" shape="139.04,143.20 140.60,140.60 143.35,138.95 147.20,138.40"/>
    </edge>
    <edge id=":i31_17" function="internal">
        <lane id=":i31_17_0" index="0" allow="passenger bus" speed="3.65" length="3.23" shape="139.20,146.00 140.00,145.60 140.80,146.00 141.60,147.20"/>
    </edge>
    <edge id=":i31_4" function="internal">
        <lane id=":i31_4_0" index="0" allow="passenger bus" speed="6.51" length="9.03" shape="147.20,141.60 144.75,141.95 143.00,143.00 141.95,144.75 141.60,147.20"/>
    </edge>
    <edge id=":i31_5" function="internal">
        <lane id=":i31_5_0" index="0" allow="passenger bus" speed="12.50" length="14.40" shape="147.20,141.60 132.80,141.60"/>
    </edge>
    <edge id=":i31_6" function="internal">
        <lane id=":i31_6_0" index="0" allow="passenger bus" speed="8.00" length="14.19" shape="147.20,141.60 143.35,141.05 140.60,139.40 138.95,136.65 138.40,132.80"/>
    </edge>
    <edge id=":i31_7" function="internal">
        <lane id=":i31_7_0" index="0" allow="passenger bus" speed="3.65" length="4.67" shape="147.20,141.60 146.00,140.80 145.60,140.00 146.00,139.20 147.20,138.40"/>
    </edge>
    <edge id=":i31_8" function="internal">
        <lane id=":i31_8_0" index="0" allow="passenger bus" speed="6.51" length="9.03" shape="141.60,132.80 141.95,135.25 143.00,137.00 144.75,138.05 147.20,138.40"/>
    </edge>
    <edge id=":i31_9" function="internal">
        <lane id=":i31_9_0" index="0" allow="passenger bus" speed="12.50" length="14.40" shape="141.60,132.80 141.60,147.20"/>
    </edge>
    <edge id=":i31_10" function="internal">
        <lane id=":i31_10_0" index="0" allow="passenger bus" speed="8.00" length="4.07" shape="141.60,132.80 141.05,136.65 140.96,136.80"/>
    </edge>
    <edge id=":i31_11" function="internal">
        <lane id=":i31_11_0" index="0" allow="passenger bus" speed="3.65" length="1.44" shape="141.60,132.80 140.80,134.00"/>
    </edge>
    <edge id=":i31_18" function="internal">
        <lane id=":i31_18_0" index="0" allow="passenger bus" speed="8.00" length="10.13" shape="140.96,136.80 139.40,139.40 136.65,141.05 132.80,141.60"/>
    </edge>
    <edge id=":i31_19" function="internal">
        <lane id=":i31_19_0" index="0" allow="passenger bus" speed="3.65" length="3.23" shape="140.80,134.00 140.00,134.40 139.20,134.00 138.40,132.80"/>
    </edge>
    <edge id=":i31_12" function="internal">
        <lane id=":i31_12_0" index="0" allow="passenger bus" speed="6.51" length="9.03" shape="132.80,138.40 135.25,138.05 137.00,137.00 138.05,135.25 138.40,132.80"/>
    </edge>
    <edge id=":i31_13" function="internal">
        <lane id=":i31_13_0" index="0" allow="passenger bus" speed="12.50" length="14.40" shape="132.80,138.40 147.20,138.40"/>
    </edge>
    <edge id=":i31_14" function="internal">