<?xml version="1.0" encoding="UTF-8"?>

<!-- generated on 2026-04-08T23:40:25.162293+01:00 by Eclipse SUMO netconvert 1.25.0
<netconvertConfiguration xmlns:xsi="http://www.w3.org/2001/XMLSchema-instance" xsi:noNamespaceSchemaLocation="http://sumo.dlr.de/xsd/netconvertConfiguration.xsd">

    <input>
        <node-files value="network/nodes.nod.xml"/>
        <edge-files value="network/edges.edg.xml"/>
    </input>

    <output>
        <output-file value="network/network.net.xml"/>
    </output>

</netconvertConfiguration>
-->

<net version="1.20" junctionCornerDetail="5" limitTurnSpeed="5.50" xmlns:xsi="http://www.w3.org/2001/XMLSchema-instance" xsi:noNamespaceSchemaLocation="http://sumo.dlr.de/xsd/net_file.xsd">

    <location netOffset="180.00,180.00" convBoundary="0.00,0.00,360.00,360.00" origBoundary="-180.00,-180.00,180.00,180.00" projParameter="!"/>

    <edge id=":nA_0" function="internal">
        <lane id=":nA_0_0" index="0" allow="passenger bus" speed="6.51" length="9.03" shape="118.40,247.20 118.05,244.75 117.00,243.00 115.25,241.95 112.80,241.60"/>
    </edge>
    <edge id=":nA_1" function="internal">
        <lane id=":nA_1_0" index="0" allow="passenger bus" speed="12.50" length="14.40" shape="118.40,247.20 118.40,232.80"/>
    </edge>
    <edge id=":nA_2" function="internal">
        <lane id=":nA_2_0" index="0" allow="passenger bus" speed="8.00" length="14.19" shape="118.40,247.20 118.95,243.35 120.60,240.60 123.35,238.95 127.20,238.40"/>
    </edge>
    <edge id=":nA_3" function="internal">
        <lane id=":nA_3_0" index="0" allow="passenger bus" speed="3.65" length="4.67" shape="118.40,247.20 119.20,246.00 120.00,245.60 120.80,246.00 121.60,247.20"/>
    </edge>
    <edge id=":nA_4" function="internal">
        <lane id=":nA_4_0" index="0" allow="passenger bus" speed="6.51" length="9.03" shape="127.20,241.60 124.75,241.95 123.00,243.00 121.95,244.75 121.60,247.20"/>
    </edge>
    <edge id=":nA_5" function="internal">
        <lane id=":nA_5_0" index="0" allow="passenger bus" speed="13.89" length="14.40" shape="127.20,241.60 112.80,241.60"/>
    </edge>
    <edge id=":nA_6" function="internal">
        <lane id=":nA_6_0" index="0" allow="passenger bus" speed="8.00" length="4.07" shape="127.20,241.60 123.35,241.05 123.20,240.96"/>
    </edge>
    <edge id=":nA_7" function="internal">
        <lane id=":nA_7_0" index="0" allow="passenger bus" speed="3.65" length="1.44" shape="127.20,241.60 126.00,240.80"/>
    </edge>
    <edge id=":nA_16" function="internal">
        <lane id=":nA_16_0" index="0" allow="passenger bus" speed="8.00" length="10.13" shape="123.20,240.96 120.60,239.40 118.95,236.65 118.40,232.80"/>
    </edge>
    <edge id=":nA_17" function="internal">
        <lane id=":nA_17_0" index="0" allow="passenger bus" speed="3.65" length="3.23" shape="126.00,240.80 125.60,240.00 126.00,239.20 127.20,238.40"/>
    </edge>
    <edge id=":nA_8" function="internal">
        <lane id=":nA_8_0" index="0" allow="passenger bus" speed="6.51" length="9.03" shape="121.60,232.80 121.95,235.25 123.00,237.00 124.75,238.05 127.20,238.40"/>
    </edge>
    <edge id=":nA_9" function="internal">
        <lane id=":nA_9_0" index="0" allow="passenger bus" speed="12.50" length="14.40" shape="121.60,232.80 121.60,247.20"/>
    </edge>
    <edge id=":nA_10" function="internal">
        <lane id=":nA_10_0" index="0" allow="passenger bus" speed="8.00" length="14.19" shape="121.60,232.80 121.05,236.65 119.40,239.40 116.65,241.05 112.80,241.60"/>
    </edge>
    <edge id=":nA_11" function="internal">
        <lane id=":nA_11_0" index="0" allow="passenger bus" speed="3.65" length="4.67" shape="121.60,232.80 120.80,234.00 120.00,234.40 119.20,234.00 118.40,232.80"/>
    </edge>
    <edge id=":nA_12" function="internal">
        <lane id=":nA_12_0" index="0" allow="passenger bus" speed="6.51" length="9.03" shape="112.80,238.40 115.25,238.05 117.00,237.00 118.05,235.25 118.40,232.80"/>
    </edge>
    <edge id=":nA_13" function="internal">
        <lane id=":nA_13_0" index="0" allow="passenger bus" speed="13.89" length="14.40" shape="112.80,238.40 127.20,238.40"/>
    </edge>
    <edge id=":nA_14" function="internal">
        <lane id=":nA_14_0" index="0" allow="passenger bus" speed="8.00" length="4.07" shape="112.80,238.40 116.65,238.95 116.80,239.04"/>
    </edge>
    <edge id=":nA_15" function="internal">
        <lane id=":nA_15_0" index="0" allow="passenger bus" speed="3.65" length="1.44" shape="112.80,238.40 114.00,239.20"/>
    </edge>
    <edge id=":nA_18" function="internal">
        <lane id=":nA_18_0" index="0" allow="passenger bus" speed="8.00" length="10.13" shape="116.80,239.04 119.40,240.60 121.05,243.35 121.60,247.20"/>
    </edge>
    <edge id=":nA_19" function="internal">
        <lane id=":nA_19_0" index="0" allow="passenger bus" speed="3.65" length="3.23" shape="114.00,239.20 114.40,240.00 114.00,240.80 112.80,241.60"/>
    </edge>
    <edge id=":nB_0" function="internal">
        <lane id=":nB_0_0" index="0" allow="passenger bus" speed="6.51" length="9.03" shape="238.40,247.20 238.05,244.75 237.00,243.00 235.25,241.95 232.80,241.60"/>
    </edge>
    <edge id=":nB_1" function="internal">
        <lane id=":nB_1_0" index="0" allow="passenger bus" speed="12.50" length="14.40" shape="238.40,247.20 238.40,232.80"/>
    </edge>
    <edge id=":nB_2" function="internal">
        <lane id=":nB_2_0" index="0" allow="passenger bus" speed="8.00" length="14.19" shape="238.40,247.20 238.95,243.35 240.60,240.60 243.35,238.95 247.20,238.40"/>
    </edge>
    <edge id=":nB_3" function="internal">
        <lane id=":nB_3_0" index="0" allow="passenger bus" speed="3.65" length="4.67" shape="238.40,247.20 239.20,246.00 240.00,245.60 240.80,246.00 241.60,247.20"/>
    </edge>
    <edge id=":nB_4" function="internal">
        <lane id=":nB_4_0" index="0" allow="passenger bus" speed="6.51" length="9.03" shape="247.20,241.60 244.75,241.95 243.00,243.00 241.95,244.75 241.60,247.20"/>
    </edge>
    <edge id=":nB_5" function="internal">
        <lane id=":nB_5_0" index="0" allow="passenger bus" speed="13.89" length="14.40" shape="247.20,241.60 232.80,241.60"/>
    </edge>
    <edge id=":nB_6" function="internal">
        <lane id=":nB_6_0" index="0" allow="passenger bus" speed="8.00" length="4.07" shape="247.20,241.60 243.35,241.05 243.20,240.96"/>
    </edge>
    <edge id=":nB_7" function="internal">
        <lane id=":nB_7_0" index="0" allow="passenger bus" speed="3.65" length="1.44" shape="247.20,241.60 246.00,240.80"/>
    </edge>
    <edge id=":nB_16" function="internal">
        <lane id=":nB_16_0" index="0" allow="passenger bus" speed="8.00" length="10.13" shape="243.20,240.96 240.60,239.40 238.95,236.65 238.40,232.80"/>
    </edge>
    <edge id=":nB_17" function="internal">
        <lane id=":nB_17_0" index="0" allow="passenger bus" speed="3.65" length="3.23" shape="246.00,240.80 245.60,240.00 246.00,239.20 247.20,238.40"/>
    </edge>
    <edge id=":nB_8" function="internal">
        <lane id=":nB_8_0" index="0" allow="passenger bus" speed="6.51" length="9.03" shape="241.60,232.80 241.95,235.25 243.00,237.00 244.75,238.05 247.20,238.40"/>
    </edge>
    <edge id=":nB_9" function="internal">
        <lane id=":nB_9_0" index="0" allow="passenger bus" speed="12.50" length="14.40" shape="241.60,232.80 241.60,247.20"/>
    </edge>
    <edge id=":nB_10" function="internal">
        <lane id=":nB_10_0" index="0" allow="passenger bus" speed="8.00" length="14.19" shape="241.60,232.80 241.05,236.65 239.40,239.40 236.65,241.05 232.80,241.60"/>
    </edge>
    <edge id=":nB_11" function="internal">
        <lane id=":nB_11_0" index="0" allow="passenger bus" speed="3.65" length="4.67" shape="241.60,232.80 240.80,234.00 240.00,234.40 239.20,234.00 238.40,232.80"/>
    </edge>
    <edge id=":nB_12" function="internal">
        <lane id=":nB_12_0" index="0" allow="passenger bus" speed="6.51" length="9.03" shape="232.80,238.40 235.25,238.05 237.00,237.00 238.05,235.25 238.40,232.80"/>
    </edge>
    <edge id=":nB_13" function="internal">
        <lane id=":nB_13_0" index="0" allow="passenger bus" speed="13.89" length="14.40" shape="232.80,238.40 247.20,238.40"/>
    </edge>
    <edge id=":nB_14" function="internal">
        <lane id=":nB_14_0" index="0" allow="passenger bus" speed="8.00" length="4.07" shape="232.80,238.40 236.65,238.95 236.80,239.04"/>
    </edge>
    <edge id=":nB_15" function="internal">
        <lane id=":nB_15_0" index="0" allow="passenger bus" speed="3.65" length="1.44" shape="232.80,238.40 234.00,239.20"/>
    </edge>
    <edge id=":nB_18" function="internal">
        <lane id=":nB_18_0" index="0" allow="passenger bus" speed="8.00" length="10.13" shape="236.80,239.04 239.40,240.60 241.05,243.35 241.60,247.20"/>
    </edge>
    <edge id=":nB_19" function="internal">
        <lane id=":nB_19_0" index="0" allow="passenger bus" speed="3.65" length="3.23" shape="234.00,239.20 234.40,240.00 234.00,240.80 232.80,241.60"/>
    </edge>
    <edge id=":nC_0" function="internal">
        <lane id=":nC_0_0" index="0" allow="passenger bus" speed="6.51" length="9.03" shape="118.40,127.20 118.05,124.75 117.00,123.00 115.25,121.95 112.80,121.60"/>
    </edge>
    <edge id=":nC_1" function="internal">
        <lane id=":nC_1_0" index="0" allow="passenger bus" speed="12.50" length="14.40" shape="118.40,127.20 118.40,112.80"/>
    </edge>
    <edge id=":nC_2" function="internal">
        <lane id=":nC_2_0" index="0" allow="passenger bus" speed="8.00" length="14.19" shape="118.40,127.20 118.95,123.35 120.60,120.60 123.35,118.95 127.20,118.40"/>
    </edge>
    <edge id=":nC_3" function="internal">
        <lane id=":nC_3_0" index="0" allow="passenger bus" speed="3.65" length="4.67" shape="118.40,127.20 119.20,126.00 120.00,125.60 120.80,126.00 121.60,127.20"/>
    </edge>
    <edge id=":nC_4" function="internal">
        <lane id=":nC_4_0" index="0" allow="passenger bus" speed="6.51" length="9.03" shape="127.20,121.60 124.75,121.95 123.00,123.00 121.95,124.75 121.60,127.20"/>
    </edge>
    <edge id=":nC_5" function="internal">
        <lane id=":nC_5_0" index="0" allow="passenger bus" speed="13.89" length="14.40" shape="127.20,121.60 112.80,121.60"/>
    </edge>
    <edge id=":nC_6" function="internal">
        <lane id=":nC_6_0" index="0" allow="passenger bus" speed="8.00" length="4.07" shape="127.20,121.60 123.35,121.05 123.20,120.96"/>
    </edge>
    <edge id=":nC_7" function="internal">
        <lane id=":nC_7_0" index="0" allow="passenger bus" speed="3.65" length="1.44" shape="127.20,121.60 126.00,120.80"/>
    </edge>
    <edge id=":nC_16" function="internal">
        <lane id=":nC_16_0" index="0" allow="passenger bus" speed="8.00" length="10.13" shape="123.20,120.96 120.60,119.40 118.95,116.65 118.40,112.80"/>
    </edge>
    <edge id=":nC_17" function="internal">
        <lane id=":nC_17_0" index="0" allow="passenger bus" speed="3.65" length="3.23" shape="126.00,120.80 125.60,120.00 126.00,119.20 127.20,118.40"/>
    </edge>
    <edge id=":nC_8" function="internal">
        <lane id=":nC_8_0" index="0" allow="passenger bus" speed="6.51" length="9.03" shape="121.60,112.80 121.95,115.25 123.00,117.00 124.75,118.05 127.20,118.40"/>
    </edge>
    <edge id=":nC_9" function="internal">
        <lane id=":nC_9_0" index="0" allow="passenger bus" speed="12.50" length="14.40" shape="121.60,112.80 121.60,127.20"/>
    </edge>
    <edge id=":nC_10" function="internal">
        <lane id=":nC_10_0" index="0" allow="passenger bus" speed="8.00" length="14.19" shape="121.60,112.80 121.05,116.65 119.40,119.40 116.65,121.05 112.80,121.60"/>
    </edge>
    <edge id=":nC_11" function="internal">
        <lane id=":nC_11_0" index="0" allow="passenger bus" speed="3.65" length="4.67" shape="121.60,112.80 120.80,114.00 120.00,114.40 119.20,114.00 118.40,112.80"/>
    </edge>
    <edge id=":nC_12" function="internal">
        <lane id=":nC_12_0" index="0" allow="passenger bus" speed="6.51" length="9.03" shape="112.80,118.40 115.25,118.05 117.00,117.00 118.05,115.25 118.40,112.80"/>
    </edge>
    <edge id=":nC_13" function="internal">
        <lane id=":nC_13_0" index="0" allow="passenger bus" speed="13.89" length="14.40" shape="112.80,118.40 127.20,118.40"/>
    </edge>
    <edge id=":nC_14" function="internal">
        <lane id=":nC_14_0" index="0" allow="passenger bus" speed="8.00" length="4.07" shape="112.80,118.40 116.65,118.95 116.80,119.04"/>
    </edge>
    <edge id=":nC_15" function="internal">
        <lane id=":nC_15_0" index="0" allow="passenger bus" speed="3.65" length="1.44" shape="112.80,118.40 114.00,119.20"/>
    </edge>
    <edge id=":nC_18" function="internal">
        <lane id=":nC_18_0" index="0" allow="passenger bus" speed="8.00" length="10.13" shape="116.80,119.04 119.40,120.60 121.05,123.35 121.60,127.20"/>
    </edge>
    <edge id=":nC_19" function="internal">
        <lane id=":nC_19_0" index="0" allow="passenger bus" speed="3.65" length="3.23" shape="114.00,119.20 114.40,120.00 114.00,120.80 112.80,121.60"/>
    </edge>
    <edge id=":nD_0" function="internal">
        <lane id=":nD_0_0" index="0" allow="passenger bus" speed="6.51" length="9.03" shape="238.40,127.20 238.05,124.75 237.00,123.00 235.25,121.95 232.80,121.60"/>
    </edge>
    <edge id=":nD_1" function="internal">
        <lane id=":nD_1_0" index="0" allow="passenger bus" speed="12.50" length="14.40" shape="238.40,127.20 238.40,112.80"/>
    </edge>
    <edge id=":nD_2" function="internal">
        <lane id=":nD_2_0" index="0" allow="passenger bus" speed="8.00" length="14.19" shape="238.40,127.20 238.95,123.35 240.60,120.60 243.35,118.95 247.20,118.40"/>
    </edge>
    <edge id=":nD_3" function="internal">
        <lane id=":nD_3_0" index="0" allow="passenger bus" speed="3.65" length="4.67" shape="238.40,127.20 239.20,126.00 240.00,125.60 240.80,126.00 241.60,127.20"/>
    </edge>
    <edge id=":nD_4" function="internal">
        <lane id=":nD_4_0" index="0" allow="passenger bus" speed="6.51" length="9.03" shape="247.20,121.60 244.75,121.95 243.00,123.00 241.95,124.75 241.60,127.20"/>
    </edge>
    <edge id=":nD_5" function="internal">
        <lane id=":nD_5_0" index="0" allow="passenger bus" speed="13.89" length="14.40" shape="247.20,121.60 232.80,121.60"/>
    </edge>
    <edge id=":nD_6" function="internal">
        <lane id=":nD_6_0" index="0" allow="passenger bus" speed="8.00" length="4.07" shape="247.20,121.60 243.35,121.05 243.20,120.96"/>
    </edge>
    <edge id=":nD_7" function="internal">
        <lane id=":nD_7_0" index="0" allow="passenger bus" speed="3.65" length="1.44" shape="247.20,121.60 246.00,120.80"/>
    </edge>
    <edge id=":nD_16" function="internal">
        <lane id=":nD_16_0" index="0" allow="passenger bus" speed="8.00" length="10.13" shape="243.20,120.96 240.60,119.40 238.95,116.65 238.40,112.80"/>
    </edge>
    <edge id=":nD_17" function="internal">
        <lane id=":nD_17_0" index="0" allow="passenger bus" speed="3.65" length="3.23" shape="246.00,120.80 245.60,120.00 246.00,119.20 247.20,118.40"/>
    </edge>
    <edge id=":nD_8" function="internal">
        <lane id=":nD_8_0" index="0" allow="passenger bus" speed="6.51" length="9.03" shape="241.60,112.80 241.95,115.25 243.00,117.00 244.75,118.05 247.20,118.40"/>
    </edge>
    <edge id=":nD_9" function="internal">
        <lane id=":nD_9_0" index="0" allow="passenger bus" speed="12.50" length="14.40" shape="241.60,112.80 241.60,127.20"/>
    </edge>
    <edge id=":nD_10" function="internal">
        <lane id=":nD_10_0" index="0" allow="passenger bus" speed="8.00" length="14.19" shape="241.60,112.80 241.05,116.65 239.40,119.40 236.65,121.05 232.80,121.60"/>
    </edge>
    <edge id=":nD_11" function="internal">
        <lane id=":nD_11_0" index="0" allow="passenger bus" speed="3.65" length="4.67" shape="241.60,112.80 240.80,114.00 240.00,114.40 239.20,114.00 238.40,112.80"/>
    </edge>
    <edge id=":nD_12" function="internal">
        <lane id=":nD_12_0" index="0" allow="passenger bus" speed="6.51" length="9.03" shape="232.80,118.40 235.25,118.05 237.00,117.00 238.05,115.25 238.40,112.80"/>
    </edge>
    <edge id=":nD_13" function="internal">
        <lane id=":nD_13_0" index="0" allow="passenger bus" speed="13.89" length="14.40" shape="232.80,118.40 247.20,118.40"/>
    </edge>
    <edge id=":nD_14" function="internal">
        <lane id=":nD_14_0" index="0" allow="passenger bus" speed="8.00" length="4.07" shape="232.80,118.40 236.65,118.95 236.80,119.04"/>
    </edge>
    <edge id=":nD_15" function="internal">
        <lane id=":nD_15_0" index="0" allow="passenger bus" speed="3.65" length="1.44" shape="232.80,118.40 234.00,119.20"/>
    </edge>
    <edge id=":nD_18" function="internal">
        <lane id=":nD_18_0" index="0" allow="passenger bus" speed="8.00" length="10.13" shape="236.80,119.04 239.40,120.60 241.05,123.35 241.60,127.20"/>
    </edge>
    <edge id=":nD_19" function="internal">
        <lane id=":nD_19_0" index="0" allow="passenger bus" speed="3.65" length="3.23" shape="234.00,119.20 234.40,120.00 234.00,120.80 232.80,121.60"/>
    </edge>
    <edge id=":nEB_0" function="internal">
        <lane id=":nEB_0_0" index="0" allow="passenger bus" speed="3.65" length="4.67" shape="360.00,118.40 361.20,119.20 361.60,120.00 361.20,120.80 360.00,121.60"/>
    </edge>
    <edge id=":nET_0" function="internal">
        <lane id=":nET_0_0" index="0" allow="passenger bus" speed="3.65" length="4.67" shape="360.00,238.40 361.20,239.20 361.60,240.00 361.20,240.80 360.00,241.60"/>
    </edge>
    <edge id=":nNE_0" function="internal">
        <lane id=":nNE_0_0" index="0" allow="passenger bus" speed="3.65" length="4.67" shape="241.60,360.00 240.80,361.20 240.00,361.60 239.20,361.20 238.40,360.00"/>
    </edge>
    <edge id=":nNW_0" function="internal">
        <lane id=":nNW_0_0" index="0" allow="passenger bus" speed="3.65" length="4.67" shape="121.60,360.00 120.80,361.20 120.00,361.60 119.20,361.20 118.40,360.00"/>
    </edge>
    <edge id=":nSE_0" function="internal">
        <lane id=":nSE_0_0" index="0" allow="passenger bus" speed="3.65" length="4.67" shape="238.40,0.00 239.20,-1.20 240.00,-1.60 240.80,-1.20 241.60,0.00"/>
    </edge>
    <edge id=":nSW_0" function="internal">
        <lane id=":nSW_0_0" index="0" allow="passenger bus" speed="3.65" length="4.67" shape="118.40,0.00 119.20,-1.20 120.00,-1.60 120.80,-1.20 121.60,0.00"/>
    </edge>
    <edge id=":nWB_0" function="internal">
        <lane id=":nWB_0_0" index="0" allow="passenger bus" speed="3.65" length="4.67" shape="0.00,121.60 -1.20,120.80 -1.60,120.00 -1.20,119.20 0.00,118.40"/>
    </edge>
    <edge id=":nWT_0" function="internal">
        <lane id=":nWT_0_0" index="0" allow="passenger bus" speed="3.65" length="4.67" shape="0.00,241.60 -1.20,240.80 -1.60,240.00 -1.20,239.20 0.00,238.40"/>
    </edge>

    <edge id="e_A_B" from="nA" to="nB" priority="3">
        <lane id="e_A_B_0" index="0" allow="passenger bus" speed="13.89" length="105.60" shape="127.20,238.40 232.80,238.40"/>
    </edge>
    <edge id="e_A_C" from="nA" to="nC" priority="3">
        <lane id="e_A_C_0" index="0" allow="passenger bus" speed="12.50" length="105.60" shape="118.40,232.80 118.40,127.20"/>
    </edge>
    <edge id="e_A_NW" from="nA" to="nNW" priority="3">
        <lane id="e_A_NW_0" index="0" allow="passenger bus" speed="12.50" length="112.80" shape="121.60,247.20 121.60,360.00"/>
    </edge>
    <edge id="e_A_WT" from="nA" to="nWT" priority="3">
        <lane id="e_A_WT_0" index="0" allow="passenger bus" speed="13.89" length="112.80" shape="112.80,241.60 0.00,241.60"/>
    </edge>
    <edge id="e_B_A" from="nB" to="nA" priority="3">
        <lane id="e_B_A_0" index="0" allow="passenger bus" speed="13.89" length="105.60" shape="232.80,241.60 127.20,241.60"/>
    </edge>
    <edge id="e_B_D" from="nB" to="nD" priority="3">
        <lane id="e_B_D_0" index="0" allow="passenger bus" speed="12.50" length="105.60" shape="238.40,232.80 238.40,127.20"/>
    </edge>
    <edge id="e_B_ET" from="nB" to="nET" priority="3">
        <lane id="e_B_ET_0" index="0" allow="passenger bus" speed="13.89" length="112.80" shape="247.20,238.40 360.00,238.40"/>
    </edge>
    <edge id="e_B_NE" from="nB" to="nNE" priority="3">
        <lane id="e_B_NE_0" index="0" allow="passenger bus" speed="12.50" length="112.80" shape="241.60,247.20 241.60,360.00"/>
    </edge>
    <edge id="e_C_A" from="nC" to="nA" priority="3">
        <lane id="e_C_A_0" index="0" allow="passenger bus" speed="12.50" length="105.60" shape="121.60,127.20 121.60,232.80"/>
    </edge>
    <edge id="e_C_D" from="nC" to="nD" priority="3">
        <lane id="e_C_D_0" index="0" allow="passenger bus" speed="13.89" length="105.60" shape="127.20,118.40 232.80,118.40"/>
    </edge>
    <edge id="e_C_SW" from="nC" to="nSW" priority="3">
        <lane id="e_C_SW_0" index="0" allow="passenger bus" speed="12.50" length="112.80" shape="118.40,112.80 118.40,0.00"/>
    </edge>
    <edge id="e_C_WB" from="nC" to="nWB" priority="3">
        <lane id="e_C_WB_0" index="0" allow="passenger bus" speed="13.89" length="112.80" shape="112.80,121.60 0.00,121.60"/>
    </edge>
    <edge id="e_D1_D2" from="pD1" to="pD2" priority="1">
        <lane id="e_D1_D2_0" index="0" allow="pedestrian" speed="2.00" length="113.14" shape="61.13,58.87 141.13,138.87"/>
    </edge>
    <edge id="e_D2_D3" from="pD2" to="pD3" priority="1">
        <lane id="e_D2_D3_0" index="0" allow="pedestrian" speed="2.00" length="113.14" shape="141.13,138.87 221.13,218.87"/>
    </edge>
    <edge id="e_D3_D4" from="pD3" to="pD4" priority="1">
        <lane id="e_D3_D4_0" index="0" allow="pedestrian" speed="2.00" length="113.14" shape="221.13,218.87 301.13,298.87"/>
    </edge>
    <edge id="e_D_B" from="nD" to="nB" priority="3">
        <lane id="e_D_B_0" index="0" allow="passenger bus" speed="12.50" length="105.60" shape="241.60,127.20 241.60,232.80"/>
    </edge>
    <edge id="e_D_C" from="nD" to="nC" priority="3">
        <lane id="e_D_C_0" index="0" allow="passenger bus" speed="13.89" length="105.60" shape="232.80,121.60 127.20,121.60"/>
    </edge>
    <edge id="e_D_EB" from="nD" to="nEB" priority="3">
        <lane id="e_D_EB_0" index="0" allow="passenger bus" speed="13.89" length="112.80" shape="247.20,118.40 360.00,118.40"/>
    </edge>
    <edge id="e_D_SE" from="nD" to="nSE" priority="3">
        <lane id="e_D_SE_0" index="0" allow="passenger bus" speed="12.50" length="112.80" shape="238.40,112.80 238.40,0.00"/>
    </edge>
    <edge id="e_EB_D" from="nEB" to="nD" priority="3">
        <lane id="e_EB_D_0" index="0" allow="passenger bus" speed="13.89" length="112.80" shape="360.00,121.60 247.20,121.60"/>
    </edge>
    <edge id="e_ET_B" from="nET" to="nB" priority="3">
        <lane id="e_ET_B_0" index="0" allow="passenger bus" speed="13.89" length="112.80" shape="360.00,241.60 247.20,241.60"/>
    </edge>
    <edge id="e_NE_B" from="nNE" to="nB" priority="3">
        <lane id="e_NE_B_0" index="0" allow="passenger bus" speed="12.50" length="112.80" shape="238.40,360.00 238.40,247.20"/>
    </edge>
    <edge id="e_NW_A" from="nNW" to="nA" priority="3">
        <lane id="e_NW_A_0" index="0" allow="passenger bus" speed="12.50" length="112.80" shape="118.40,360.00 118.40,247.20"/>
    </edge>
    <edge id="e_SE_D" from="nSE" to="nD" priority="3">
        <lane id="e_SE_D_0" index="0" allow="passenger bus" speed="12.50" length="112.80" shape="241.60,0.00 241.60,112.80"/>
    </edge>
    <edge id="e_SW_C" from="nSW" to="nC" priority="3">
        <lane id="e_SW_C_0" index="0" allow="passenger bus" speed="12.50" length="112.80" shape="121.60,0.00 121.60,112.80"/>
    </edge>
    <edge id="e_WB_C" from="nWB" to="nC" priority="3">
        <lane id="e_WB_C_0" index="0" allow="passenger bus" speed="13.89" length="112.80" shape="0.00,118.40 112.80,118.40"/>
    </edge>
    <edge id="e_WT_A" from="nWT" to="nA" priority="3">
        <lane id="e_WT_A_0" index="0" allow="passenger bus" speed="13.89" length="112.80" shape="0.00,238.40 112.80,238.40"/>
    </edge>
    <edge id="e_X1_X2" from="pX1" to="pX2" priority="1">
        <lane id="e_X1_X2_0" index="0" allow="pedestrian" speed="1.80" length="70.00" shape="110.00,178.40 180.00,178.40"/>
    </edge>
    <edge id="e_X2_X3" from="pX2" to="pX3" priority="1">
        <lane id="e_X2_X3_0" index="0" allow="pedestrian" speed="1.80" length="70.00" shape="180.00,178.40 250.00,178.40"/>
    </edge>
    <edge id="e_X3_pE" from="pX3" to="pE" priority="1">
        <lane id="e_X3_pE_0" index="0" allow="pedestrian" speed="1.80" length="70.00" shape="250.00,178.40 320.00,178.40"/>
    </edge>
    <edge id="e_Y1_Y2" from="pY1" to="pY2" priority="1">
        <lane id="e_Y1_Y2_0" index="0" allow="pedestrian" speed="1.80" length="70.00" shape="181.60,110.00 181.60,180.00"/>
    </edge>
    <edge id="e_Y2_Y3" from="pY2" to="pY3" priority="1">
        <lane id="e_Y2_Y3_0" index="0" allow="pedestrian" speed="1.80" length="70.00" shape="181.60,180.00 181.60,250.00"/>
    </edge>
    <edge id="e_Y3_pN" from="pY3" to="pN" priority="1">
        <lane id="e_Y3_pN_0" index="0" allow="pedestrian" speed="1.80" length="70.00" shape="181.60,250.00 181.60,320.00"/>
    </edge>
    <edge id="e_pS_Y1" from="pS" to="pY1" priority="1">
        <lane id="e_pS_Y1_0" index="0" allow="pedestrian" speed="1.80" length="70.00" shape="181.60,40.00 181.60,110.00"/>
    </edge>
    <edge id="e_pW_X1" from="pW" to="pX1" priority="1">
        <lane id="e_pW_X1_0" index="0" allow="pedestrian" speed="1.80" length="70.00" shape="40.00,178.40 110.00,178.40"/>
    </edge>

    <junction id="nA" type="priority" x="120.00" y="240.00" incLanes="e_NW_A_0 e_B_A_0 e_C_A_0 e_WT_A_0" intLanes=":nA_0_0 :nA_1_0 :nA_2_0 :nA_3_0 :nA_4_0 :nA_5_0 :nA_16_0 :nA_17_0 :nA_8_0 :nA_9_0 :nA_10_0 :nA_11_0 :nA_12_0 :nA_13_0 :nA_18_0 :nA_19_0" shape="116.80,247.20 123.20,247.20 123.64,244.98 124.20,244.20 124.98,243.64 125.98,243.31 127.20,243.20 127.20,236.80 124.98,236.36 124.20,235.80 123.64,235.02 123.31,234.02 123.20,232.80 116.80,232.80 116.36,235.02 115.80,235.80 115.02,236.36 114.02,236.69 112.80,236.80 112.80,243.20 115.02,243.64 115.80,244.20 116.36,244.98 116.69,245.98">
        <request index="0"  response="0000000000100000" foes="1000010000100000" cont="0"/>
        <request index="1"  response="0111000001100000" foes="0111110001100000" cont="0"/>
        <request index="2"  response="0110001101100000" foes="0110011111100000" cont="0"/>
        <request index="3"  response="0100001000010000" foes="0100001000010000" cont="0"/>
        <request index="4"  response="0000000000000000" foes="0100001000001000" cont="0"/>
        <request index="5"  response="0000000000000000" foes="1100011000000111" cont="0"/>
        <request index="6"  response="0111000000000000" foes="0111111000000110" cont="1"/>
        <request index="7"  response="0010000100000100" foes="0010000100000100" cont="1"/>
        <request index="8"  response="0010000000000000" foes="0010000010000100" cont="0"/>
        <request index="9"  response="0110000001110000" foes="0110000001111100" cont="0"/>
        <request index="10" response="0110000001100111" foes="1110000001100111" cont="0"/>
        <request index="11" response="0001000001000010" foes="0001000001000010" cont="0"/>
        <request index="12" response="0000000000000000" foes="0000100001000010" cont="0"/>
        <request index="13" response="0000000000000000" foes="0000011111000110" cont="0"/>
        <request index="14" response="0000000000110000" foes="0000011001111110" cont="1"/>
        <request index="15" response="0000010000100001" foes="0000010000100001" cont="1"/>
    </junction>
    <junction id="nB" type="priority" x="240.00" y="240.00" incLanes="e_NE_B_0 e_ET_B_0 e_D_B_0 e_A_B_0" intLanes=":nB_0_0 :nB_1_0 :nB_2_0 :nB_3_0 :nB_4_0 :nB_5_0 :nB_16_0 :nB_17_0 :nB_8_0 :nB_9_0 :nB_10_0 :nB_11_0 :nB_12_0 :nB_13_0 :nB_18_0 :nB_19_0" shape="236.80,247.20 243.20,247.20 243.64,244.98 244.20,244.20 244.98,243.64 245.98,243.31 247.20,243.20 247.20,236.80 244.98,236.36 244.20,235.80 243.64,235.02 243.31,234.02 243.20,232.80 236.80,232.80 236.36,235.02 235.80,235.80 235.02,236.36 234.02,236.69 232.80,236.80 232.80,243.20 235.02,243.64 235.80,244.20 236.36,244.98 236.69,245.98">
        <request index="0"  response="0000000000100000" foes="1000010000100000" cont="0"/>
        <request index="1"  response="0111000001100000" foes="0111110001100000" cont="0"/>
        <request index="2"  response="0110001101100000" foes="0110011111100000" cont="0"/>
        <request index="3"  response="0100001000010000" foes="0100001000010000" cont="0"/>
        <request index="4"  response="0000000000000000" foes="0100001000001000" cont="0"/>
        <request index="5"  response="0000000000000000" foes="1100011000000111" cont="0"/>
        <request index="6"  response="0011000000000000" foes="0111111000000110" cont="1"/>
        <request index="7"  response="0010000100000100" foes="0010000100000100" cont="1"/>
        <request index="8"  response="0010000000000000" foes="0010000010000100" cont="0"/>
        <request index="9"  response="0110000001110000" foes="0110000001111100" cont="0"/>
        <request index="10" response="0110000001100111" foes="1110000001100111" cont="0"/>
        <request index="11" response="0001000001000010" foes="0001000001000010" cont="0"/>
        <request index="12" response="0000000000000000" foes="0000100001000010" cont="0"/>
        <request index="13" response="0000000000000000" foes="0000011111000110" cont="0"/>
        <request index="14" response="0000000001110000" foes="0000011001111110" cont="1"/>
        <request index="15" response="0000010000100001" foes="0000010000100001" cont="1"/>
    </junction>